!- Linux Line endings

Version,
    9.4;                      !- Version Identifier

SimulationControl,
    Yes,                      !- Do Zone Sizing Calculation
    Yes,                      !- Do System Sizing Calculation
    Yes,                      !- Do Plant Sizing Calculation
    Yes,                      !- Run Simulation for Sizing Periods
    Yes,                      !- Run Simulation for Weather File Run Periods
    ,                         !- Do HVAC Sizing Simulation for Sizing Periods
    ;                         !- Maximum Number of HVAC Sizing Simulation Passes

Building,
    FAUrb PTHP,               !- Name
    0,                        !- North Axis
    City,                     !- Terrain
    0.04,                     !- Loads Convergence Tolerance Value
    0.4,                      !- Temperature Convergence Tolerance Value
    FullInteriorAndExterior,    !- Solar Distribution
    25,                       !- Maximum Number of Warmup Days
    ;                         !- Minimum Number of Warmup Days

ZoneAirContaminantBalance,
    Yes,                      !- Carbon Dioxide Concentration
    Outdoor CO2 Schedule;     !- Outdoor Carbon Dioxide Schedule Name

Timestep,
    6;                        !- Number of Timesteps per Hour

Site:Location,
    RS_Pelotas,               !- Name
    -31.52,                   !- Latitude
    -52.21,                   !- Longitude
    -3,                       !- Time Zone
    17;                       !- Elevation

SizingPeriod:DesignDay,
    Camaqua_Inverno,          !- Name
    7,                        !- Month
    21,                       !- Day of Month
    WinterDesignDay,          !- Day Type
    3.1,                      !- Maximum DryBulb Temperature
    10.2,                     !- Daily DryBulb Temperature Range
    DefaultMultipliers,       !- DryBulb Temperature Range Modifier Type
    ,                         !- DryBulb Temperature Range Modifier Day Schedule Name
    DewPoint,                 !- Humidity Condition Type
    3.1,                      !- Wetbulb or DewPoint at Maximum DryBulb
    ,                         !- Humidity Condition Day Schedule Name
    ,                         !- Humidity Ratio at Maximum DryBulb
    ,                         !- Enthalpy at Maximum DryBulb
    ,                         !- Daily WetBulb Temperature Range
    84930,                    !- Barometric Pressure
    0.5,                      !- Wind Speed
    90,                       !- Wind Direction
    No,                       !- Rain Indicator
    No,                       !- Snow Indicator
    No,                       !- Daylight Saving Time Indicator
    ASHRAEClearSky,           !- Solar Model Indicator
    ,                         !- Beam Solar Day Schedule Name
    ,                         !- Diffuse Solar Day Schedule Name
    ,                         !- ASHRAE Clear Sky Optical Depth for Beam Irradiance taub
    ,                         !- ASHRAE Clear Sky Optical Depth for Diffuse Irradiance taud
    0,                        !- Sky Clearness
    ,                         !- Maximum Number Warmup Days
    FullResetAtBeginEnvironment;    !- Begin Environment Reset Mode

SizingPeriod:DesignDay,
    Camaqua_Verao,            !- Name
    1,                        !- Month
    21,                       !- Day of Month
    SummerDesignDay,          !- Day Type
    28.6,                     !- Maximum DryBulb Temperature
    10.2,                     !- Daily DryBulb Temperature Range
    DefaultMultipliers,       !- DryBulb Temperature Range Modifier Type
    ,                         !- DryBulb Temperature Range Modifier Day Schedule Name
    DewPoint,                 !- Humidity Condition Type
    21,                       !- Wetbulb or DewPoint at Maximum DryBulb
    ,                         !- Humidity Condition Day Schedule Name
    ,                         !- Humidity Ratio at Maximum DryBulb
    ,                         !- Enthalpy at Maximum DryBulb
    ,                         !- Daily WetBulb Temperature Range
    84930,                    !- Barometric Pressure
    3.9,                      !- Wind Speed
    0,                        !- Wind Direction
    No,                       !- Rain Indicator
    No,                       !- Snow Indicator
    No,                       !- Daylight Saving Time Indicator
    ASHRAEClearSky,           !- Solar Model Indicator
    ,                         !- Beam Solar Day Schedule Name
    ,                         !- Diffuse Solar Day Schedule Name
    ,                         !- ASHRAE Clear Sky Optical Depth for Beam Irradiance taub
    ,                         !- ASHRAE Clear Sky Optical Depth for Diffuse Irradiance taud
    1,                        !- Sky Clearness
    ,                         !- Maximum Number Warmup Days
    FullResetAtBeginEnvironment;    !- Begin Environment Reset Mode

RunPeriod,
    Simulacao,                !- Name
    1,                        !- Begin Month
    1,                        !- Begin Day of Month
    2015,                     !- Begin Year
    12,                       !- End Month
    31,                       !- End Day of Month
    2015,                     !- End Year
    SUNDAY;                   !- Day of Week for Start Day

RunPeriodControl:SpecialDays,
    Ano Novo,                 !- Name
    January 1,                !- Start Date
    1,                        !- Duration
    Holiday;                  !- Special Day Type

RunPeriodControl:SpecialDays,
    Carnaval,                 !- Name
    March 3,                  !- Start Date
    1,                        !- Duration
    Holiday;                  !- Special Day Type

RunPeriodControl:SpecialDays,
    Sexta feira santa,        !- Name
    April 19,                 !- Start Date
    1,                        !- Duration
    Holiday;                  !- Special Day Type

RunPeriodControl:SpecialDays,
    Pascoa,                   !- Name
    April 21,                 !- Start Date
    1,                        !- Duration
    Holiday;                  !- Special Day Type

RunPeriodControl:SpecialDays,
    Dia do trabalho,          !- Name
    May 1,                    !- Start Date
    1,                        !- Duration
    Holiday;                  !- Special Day Type

RunPeriodControl:SpecialDays,
    Independencia,            !- Name
    September 7,              !- Start Date
    1,                        !- Duration
    Holiday;                  !- Special Day Type

RunPeriodControl:SpecialDays,
    Nossa senhora,            !- Name
    October 12,               !- Start Date
    1,                        !- Duration
    Holiday;                  !- Special Day Type

RunPeriodControl:SpecialDays,
    Finados,                  !- Name
    November 2,               !- Start Date
    1,                        !- Duration
    Holiday;                  !- Special Day Type

RunPeriodControl:SpecialDays,
    Proclamacao republica,    !- Name
    November 15,              !- Start Date
    1,                        !- Duration
    Holiday;                  !- Special Day Type

RunPeriodControl:SpecialDays,
    Natal,                    !- Name
    December 25,              !- Start Date
    1,                        !- Duration
    Holiday;                  !- Special Day Type

Site:GroundTemperature:Undisturbed:FiniteDifference,
    FiniteDiff,               !- Name
    1,                        !- Soil Thermal Conductivity
    1250,                     !- Soil Density
    1200,                     !- Soil Specific Heat
    30,                       !- Soil Moisture Content Volume Fraction
    50,                       !- Soil Moisture Content Volume Fraction at Saturation
    0.4;                      !- Evapotranspiration Ground Cover Parameter

Site:GroundDomain:Slab,
    GROUNDOMAIN,              !- Name
    10,                       !- Ground Domain Depth
    1,                        !- Aspect Ratio
    5,                        !- Perimeter Offset
    1.5,                      !- Soil Thermal Conductivity
    2800,                     !- Soil Density
    850,                      !- Soil Specific Heat
    30,                       !- Soil Moisture Content Volume Fraction
    50,                       !- Soil Moisture Content Volume Fraction at Saturation
    Site:GroundTemperature:Undisturbed:FiniteDifference,    !- Undisturbed Ground Temperature Model Type
    FiniteDiff,               !- Undisturbed Ground Temperature Model Name
    0.4,                      !- Evapotranspiration Ground Cover Parameter
    GroundCoupledOSCM,        !- Slab Boundary Condition Model Name
    OnGrade,                  !- Slab Location
    ,                         !- Slab Material Name
    No,                       !- Horizontal Insulation
    ,                         !- Horizontal Insulation Material Name
    Full,                     !- Horizontal Insulation Extents
    ,                         !- Perimeter Insulation Width
    No,                       !- Vertical Insulation
    ,                         !- Vertical Insulation Material Name
    ,                         !- Vertical Insulation Depth
    Hourly,                   !- Simulation Timestep
    1.6,                      !- Geometric Mesh Coefficient
    6;                        !- Mesh Density Parameter

ScheduleTypeLimits,
    Any Number;               !- Name

ScheduleTypeLimits,
    Fraction,                 !- Name
    0,                        !- Lower Limit Value
    1,                        !- Upper Limit Value
    CONTINUOUS;               !- Numeric Type

ScheduleTypeLimits,
    Temperature,              !- Name
    -60,                      !- Lower Limit Value
    200,                      !- Upper Limit Value
    CONTINUOUS;               !- Numeric Type

ScheduleTypeLimits,
    On/Off,                   !- Name
    0,                        !- Lower Limit Value
    1,                        !- Upper Limit Value
    DISCRETE;                 !- Numeric Type

ScheduleTypeLimits,
    Control Type,             !- Name
    0,                        !- Lower Limit Value
    4,                        !- Upper Limit Value
    DISCRETE;                 !- Numeric Type

ScheduleTypeLimits,
    Humidity,                 !- Name
    10,                       !- Lower Limit Value
    90,                       !- Upper Limit Value
    CONTINUOUS;               !- Numeric Type

ScheduleTypeLimits,
    Number;                   !- Name

Schedule:Compact,
    OCUPACAO,                 !- Name
    Fraction,                 !- Schedule Type Limits Name
    Through: 12/31,           !- Field 1
    For: Weekdays,            !- Field 2
    Until: 8:00,              !- Field 3
    0,                        !- Field 4
    Until: 12:00,             !- Field 5
    1,                        !- Field 6
    Until: 13:30,             !- Field 7
    0,                        !- Field 8
    Until: 17:30,             !- Field 9
    1,                        !- Field 10
    Until: 19:00,             !- Field 11
    0,                        !- Field 12
    Until: 22:00,             !- Field 13
    1,                        !- Field 14
    Until: 24:00,             !- Field 15
    0,                        !- Field 16
    For: Weekends Holidays,    !- Field 17
    Until: 24:00,             !- Field 18
    0,                        !- Field 19
    For: AllOtherDays,        !- Field 20
    Until: 24:00,             !- Field 21
    0;                        !- Field 22

Schedule:Compact,
    VN_25,                    !- Name
    Temperature,              !- Schedule Type Limits Name
    Through: 12/31,           !- Field 1
    For: AllDays,             !- Field 2
    Until: 24:00,             !- Field 3
    25;                       !- Field 4

Schedule:Constant,
    Outdoor CO2 Schedule,     !- Name
    Any Number,               !- Schedule Type Limits Name
    400;                      !- Hourly Value

Schedule:Constant,
    METABOLISMO,              !- Name
    Any Number,               !- Schedule Type Limits Name
    125.496;                  !- Hourly Value

Schedule:Constant,
    WORK_EF,                  !- Name
    Any Number,               !- Schedule Type Limits Name
    0;                        !- Hourly Value

Schedule:Constant,
    Always Off,               !- Name
    On/Off,                   !- Schedule Type Limits Name
    0;                        !- Hourly Value

Schedule:Constant,
    Always On,                !- Name
    On/Off,                   !- Schedule Type Limits Name
    1;                        !- Hourly Value

Schedule:Constant,
    JANELA_SALA_AULA,         !- Name
    On/Off,                   !- Schedule Type Limits Name
    1;                        !- Hourly Value

Schedule:Constant,
    VENT_SALA_AULA,           !- Name
    Any Number,               !- Schedule Type Limits Name
    0;                        !- Hourly Value

Schedule:Constant,
    VEL_SALA_AULA,            !- Name
    Any Number,               !- Schedule Type Limits Name
    0;                        !- Hourly Value

Schedule:Constant,
    AC_SALA_AULA,             !- Name
    Any Number,               !- Schedule Type Limits Name
    0;                        !- Hourly Value

Schedule:Constant,
    DOAS_STATUS_SALA_AULA,    !- Name
    On/Off,                   !- Schedule Type Limits Name
    0;                        !- Hourly Value

Schedule:Constant,
    TEMP_COOL_AC_SALA_AULA,    !- Name
    Temperature,              !- Schedule Type Limits Name
    24;                       !- Hourly Value

Schedule:Constant,
    TEMP_HEAT_AC_SALA_AULA,    !- Name
    Temperature,              !- Schedule Type Limits Name
    22;                       !- Hourly Value

Schedule:Constant,
    PMV_SALA_AULA,            !- Name
    Number,                   !- Schedule Type Limits Name
    0;                        !- Hourly Value

Schedule:Constant,
    ADAPTATIVO_PYTHERMAL_SALA_AULA,    !- Name
    Number,                   !- Schedule Type Limits Name
    0;                        !- Hourly Value

Schedule:Constant,
    TEMP_OP_MAX_ADAP_SALA_AULA,    !- Name
    Number,                   !- Schedule Type Limits Name
    0;                        !- Hourly Value

Schedule:Constant,
    ADAP_MIN_SALA_AULA,       !- Name
    Number,                   !- Schedule Type Limits Name
    0;                        !- Hourly Value

Schedule:Constant,
    ADAP_MAX_SALA_AULA,       !- Name
    Number,                   !- Schedule Type Limits Name
    0;                        !- Hourly Value

Schedule:Constant,
    EM_CONFORTO_SALA_AULA,    !- Name
    Number,                   !- Schedule Type Limits Name
    0;                        !- Hourly Value

Schedule:Constant,
    JANELA_RECEPCAO,          !- Name
    On/Off,                   !- Schedule Type Limits Name
    0;                        !- Hourly Value

Schedule:Constant,
    VENT_RECEPCAO,            !- Name
    Any Number,               !- Schedule Type Limits Name
    0;                        !- Hourly Value

Schedule:Constant,
    VEL_RECEPCAO,             !- Name
    Any Number,               !- Schedule Type Limits Name
    0;                        !- Hourly Value

Schedule:Constant,
    AC_RECEPCAO,              !- Name
    Any Number,               !- Schedule Type Limits Name
    0;                        !- Hourly Value

Schedule:Constant,
    DOAS_STATUS_RECEPCAO,     !- Name
    On/Off,                   !- Schedule Type Limits Name
    0;                        !- Hourly Value

Schedule:Constant,
    TEMP_COOL_AC_RECEPCAO,    !- Name
    Temperature,              !- Schedule Type Limits Name
    24;                       !- Hourly Value

Schedule:Constant,
    TEMP_HEAT_AC_RECEPCAO,    !- Name
    Temperature,              !- Schedule Type Limits Name
    22;                       !- Hourly Value

Schedule:Constant,
    PMV_RECEPCAO,             !- Name
    Number,                   !- Schedule Type Limits Name
    0;                        !- Hourly Value

Schedule:Constant,
    ADAPTATIVO_PYTHERMAL_RECEPCAO,    !- Name
    Number,                   !- Schedule Type Limits Name
    0;                        !- Hourly Value

Schedule:Constant,
    TEMP_OP_MAX_ADAP_RECEPCAO,    !- Name
    Number,                   !- Schedule Type Limits Name
    0;                        !- Hourly Value

Schedule:Constant,
    ADAP_MIN_RECEPCAO,        !- Name
    Number,                   !- Schedule Type Limits Name
    0;                        !- Hourly Value

Schedule:Constant,
    ADAP_MAX_RECEPCAO,        !- Name
    Number,                   !- Schedule Type Limits Name
    0;                        !- Hourly Value

Schedule:Constant,
    EM_CONFORTO_RECEPCAO,     !- Name
    Number,                   !- Schedule Type Limits Name
    0;                        !- Hourly Value

Schedule:Constant,
    JANELA_ATELIE1,           !- Name
    On/Off,                   !- Schedule Type Limits Name
    0;                        !- Hourly Value

Schedule:Constant,
    VENT_ATELIE1,             !- Name
    Any Number,               !- Schedule Type Limits Name
    0;                        !- Hourly Value

Schedule:Constant,
    VEL_ATELIE1,              !- Name
    Any Number,               !- Schedule Type Limits Name
    0;                        !- Hourly Value

Schedule:Constant,
    AC_ATELIE1,               !- Name
    Any Number,               !- Schedule Type Limits Name
    0;                        !- Hourly Value

Schedule:Constant,
    DOAS_STATUS_ATELIE1,      !- Name
    On/Off,                   !- Schedule Type Limits Name
    0;                        !- Hourly Value

Schedule:Constant,
    TEMP_COOL_AC_ATELIE1,     !- Name
    Temperature,              !- Schedule Type Limits Name
    24;                       !- Hourly Value

Schedule:Constant,
    TEMP_HEAT_AC_ATELIE1,     !- Name
    Temperature,              !- Schedule Type Limits Name
    22;                       !- Hourly Value

Schedule:Constant,
    PMV_ATELIE1,              !- Name
    Number,                   !- Schedule Type Limits Name
    0;                        !- Hourly Value

Schedule:Constant,
    ADAPTATIVO_PYTHERMAL_ATELIE1,    !- Name
    Number,                   !- Schedule Type Limits Name
    0;                        !- Hourly Value

Schedule:Constant,
    TEMP_OP_MAX_ADAP_ATELIE1,    !- Name
    Number,                   !- Schedule Type Limits Name
    0;                        !- Hourly Value

Schedule:Constant,
    ADAP_MIN_ATELIE1,         !- Name
    Number,                   !- Schedule Type Limits Name
    0;                        !- Hourly Value

Schedule:Constant,
    ADAP_MAX_ATELIE1,         !- Name
    Number,                   !- Schedule Type Limits Name
    0;                        !- Hourly Value

Schedule:Constant,
    EM_CONFORTO_ATELIE1,      !- Name
    Number,                   !- Schedule Type Limits Name
    0;                        !- Hourly Value

Schedule:Constant,
    JANELA_ATELIE2,           !- Name
    On/Off,                   !- Schedule Type Limits Name
    0;                        !- Hourly Value

Schedule:Constant,
    VENT_ATELIE2,             !- Name
    Any Number,               !- Schedule Type Limits Name
    0;                        !- Hourly Value

Schedule:Constant,
    VEL_ATELIE2,              !- Name
    Any Number,               !- Schedule Type Limits Name
    0;                        !- Hourly Value

Schedule:Constant,
    AC_ATELIE2,               !- Name
    Any Number,               !- Schedule Type Limits Name
    0;                        !- Hourly Value

Schedule:Constant,
    DOAS_STATUS_ATELIE2,      !- Name
    On/Off,                   !- Schedule Type Limits Name
    0;                        !- Hourly Value

Schedule:Constant,
    TEMP_COOL_AC_ATELIE2,     !- Name
    Temperature,              !- Schedule Type Limits Name
    24;                       !- Hourly Value

Schedule:Constant,
    TEMP_HEAT_AC_ATELIE2,     !- Name
    Temperature,              !- Schedule Type Limits Name
    22;                       !- Hourly Value

Schedule:Constant,
    PMV_ATELIE2,              !- Name
    Number,                   !- Schedule Type Limits Name
    0;                        !- Hourly Value

Schedule:Constant,
    ADAPTATIVO_PYTHERMAL_ATELIE2,    !- Name
    Number,                   !- Schedule Type Limits Name
    0;                        !- Hourly Value

Schedule:Constant,
    TEMP_OP_MAX_ADAP_ATELIE2,    !- Name
    Number,                   !- Schedule Type Limits Name
    0;                        !- Hourly Value

Schedule:Constant,
    ADAP_MIN_ATELIE2,         !- Name
    Number,                   !- Schedule Type Limits Name
    0;                        !- Hourly Value

Schedule:Constant,
    ADAP_MAX_ATELIE2,         !- Name
    Number,                   !- Schedule Type Limits Name
    0;                        !- Hourly Value

Schedule:Constant,
    EM_CONFORTO_ATELIE2,      !- Name
    Number,                   !- Schedule Type Limits Name
    0;                        !- Hourly Value

Schedule:Constant,
    JANELA_ATELIE3,           !- Name
    On/Off,                   !- Schedule Type Limits Name
    0;                        !- Hourly Value

Schedule:Constant,
    VENT_ATELIE3,             !- Name
    Any Number,               !- Schedule Type Limits Name
    0;                        !- Hourly Value

Schedule:Constant,
    VEL_ATELIE3,              !- Name
    Any Number,               !- Schedule Type Limits Name
    0;                        !- Hourly Value

Schedule:Constant,
    AC_ATELIE3,               !- Name
    Any Number,               !- Schedule Type Limits Name
    0;                        !- Hourly Value

Schedule:Constant,
    DOAS_STATUS_ATELIE3,      !- Name
    On/Off,                   !- Schedule Type Limits Name
    0;                        !- Hourly Value

Schedule:Constant,
    TEMP_COOL_AC_ATELIE3,     !- Name
    Temperature,              !- Schedule Type Limits Name
    24;                       !- Hourly Value

Schedule:Constant,
    TEMP_HEAT_AC_ATELIE3,     !- Name
    Temperature,              !- Schedule Type Limits Name
    22;                       !- Hourly Value

Schedule:Constant,
    PMV_ATELIE3,              !- Name
    Number,                   !- Schedule Type Limits Name
    0;                        !- Hourly Value

Schedule:Constant,
    ADAPTATIVO_PYTHERMAL_ATELIE3,    !- Name
    Number,                   !- Schedule Type Limits Name
    0;                        !- Hourly Value

Schedule:Constant,
    TEMP_OP_MAX_ADAP_ATELIE3,    !- Name
    Number,                   !- Schedule Type Limits Name
    0;                        !- Hourly Value

Schedule:Constant,
    ADAP_MIN_ATELIE3,         !- Name
    Number,                   !- Schedule Type Limits Name
    0;                        !- Hourly Value

Schedule:Constant,
    ADAP_MAX_ATELIE3,         !- Name
    Number,                   !- Schedule Type Limits Name
    0;                        !- Hourly Value

Schedule:Constant,
    EM_CONFORTO_ATELIE3,      !- Name
    Number,                   !- Schedule Type Limits Name
    0;                        !- Hourly Value

Schedule:Constant,
    JANELA_LINSE,             !- Name
    On/Off,                   !- Schedule Type Limits Name
    0;                        !- Hourly Value

Schedule:Constant,
    VENT_LINSE,               !- Name
    Any Number,               !- Schedule Type Limits Name
    0;                        !- Hourly Value

Schedule:Constant,
    VEL_LINSE,                !- Name
    Any Number,               !- Schedule Type Limits Name
    0;                        !- Hourly Value

Schedule:Constant,
    AC_LINSE,                 !- Name
    Any Number,               !- Schedule Type Limits Name
    0;                        !- Hourly Value

Schedule:Constant,
    DOAS_STATUS_LINSE,        !- Name
    On/Off,                   !- Schedule Type Limits Name
    0;                        !- Hourly Value

Schedule:Constant,
    TEMP_COOL_AC_LINSE,       !- Name
    Temperature,              !- Schedule Type Limits Name
    24;                       !- Hourly Value

Schedule:Constant,
    TEMP_HEAT_AC_LINSE,       !- Name
    Temperature,              !- Schedule Type Limits Name
    22;                       !- Hourly Value

Schedule:Constant,
    PMV_LINSE,                !- Name
    Number,                   !- Schedule Type Limits Name
    0;                        !- Hourly Value

Schedule:Constant,
    ADAPTATIVO_PYTHERMAL_LINSE,    !- Name
    Number,                   !- Schedule Type Limits Name
    0;                        !- Hourly Value

Schedule:Constant,
    TEMP_OP_MAX_ADAP_LINSE,    !- Name
    Number,                   !- Schedule Type Limits Name
    0;                        !- Hourly Value

Schedule:Constant,
    ADAP_MIN_LINSE,           !- Name
    Number,                   !- Schedule Type Limits Name
    0;                        !- Hourly Value

Schedule:Constant,
    ADAP_MAX_LINSE,           !- Name
    Number,                   !- Schedule Type Limits Name
    0;                        !- Hourly Value

Schedule:Constant,
    EM_CONFORTO_LINSE,        !- Name
    Number,                   !- Schedule Type Limits Name
    0;                        !- Hourly Value

Schedule:Constant,
    JANELA_SEC_LINSE,         !- Name
    On/Off,                   !- Schedule Type Limits Name
    0;                        !- Hourly Value

Schedule:Constant,
    VENT_SEC_LINSE,           !- Name
    Any Number,               !- Schedule Type Limits Name
    0;                        !- Hourly Value

Schedule:Constant,
    VEL_SEC_LINSE,            !- Name
    Any Number,               !- Schedule Type Limits Name
    0;                        !- Hourly Value

Schedule:Constant,
    AC_SEC_LINSE,             !- Name
    Any Number,               !- Schedule Type Limits Name
    0;                        !- Hourly Value

Schedule:Constant,
    DOAS_STATUS_SEC_LINSE,    !- Name
    On/Off,                   !- Schedule Type Limits Name
    0;                        !- Hourly Value

Schedule:Constant,
    TEMP_COOL_AC_SEC_LINSE,    !- Name
    Temperature,              !- Schedule Type Limits Name
    24;                       !- Hourly Value

Schedule:Constant,
    TEMP_HEAT_AC_SEC_LINSE,    !- Name
    Temperature,              !- Schedule Type Limits Name
    22;                       !- Hourly Value

Schedule:Constant,
    PMV_SEC_LINSE,            !- Name
    Number,                   !- Schedule Type Limits Name
    0;                        !- Hourly Value

Schedule:Constant,
    ADAPTATIVO_PYTHERMAL_SEC_LINSE,    !- Name
    Number,                   !- Schedule Type Limits Name
    0;                        !- Hourly Value

Schedule:Constant,
    TEMP_OP_MAX_ADAP_SEC_LINSE,    !- Name
    Number,                   !- Schedule Type Limits Name
    0;                        !- Hourly Value

Schedule:Constant,
    ADAP_MIN_SEC_LINSE,       !- Name
    Number,                   !- Schedule Type Limits Name
    0;                        !- Hourly Value

Schedule:Constant,
    ADAP_MAX_SEC_LINSE,       !- Name
    Number,                   !- Schedule Type Limits Name
    0;                        !- Hourly Value

Schedule:Constant,
    EM_CONFORTO_SEC_LINSE,    !- Name
    Number,                   !- Schedule Type Limits Name
    0;                        !- Hourly Value

Material,
    LAJE_CONCRETO,            !- Name
    MediumRough,              !- Roughness
    0.1,                      !- Thickness
    1.75,                     !- Conductivity
    2400,                     !- Density
    1000,                     !- Specific Heat
    0.9,                      !- Thermal Absorptance
    0.7,                      !- Solar Absorptance
    0.7;                      !- Visible Absorptance

Material,
    MADEIRA,                  !- Name
    MediumRough,              !- Roughness
    0.03,                     !- Thickness
    0.15,                     !- Conductivity
    500,                      !- Density
    2300,                     !- Specific Heat
    0.9,                      !- Thermal Absorptance
    0.7,                      !- Solar Absorptance
    0.7;                      !- Visible Absorptance

Material,
    PISO_PORCELANATO,         !- Name
    MediumRough,              !- Roughness
    0.015,                    !- Thickness
    1.05,                     !- Conductivity
    2000,                     !- Density
    920,                      !- Specific Heat
    0.9,                      !- Thermal Absorptance
    0.7,                      !- Solar Absorptance
    0.7;                      !- Visible Absorptance

Material,
    TIJOLO,                   !- Name
    MediumRough,              !- Roughness
    0.1,                      !- Thickness
    0.9,                      !- Conductivity
    1400,                     !- Density
    920,                      !- Specific Heat
    0.9,                      !- Thermal Absorptance
    0.7,                      !- Solar Absorptance
    0.7;                      !- Visible Absorptance

Material,
    TELHA_ALUMINIO,           !- Name
    MediumRough,              !- Roughness
    0.001,                    !- Thickness
    230,                      !- Conductivity
    2700,                     !- Density
    880,                      !- Specific Heat
    0.9,                      !- Thermal Absorptance
    0.7,                      !- Solar Absorptance
    0.7;                      !- Visible Absorptance

Material,
    LA_DE_ROCHA_50mm,         !- Name
    MediumSmooth,             !- Roughness
    0.05,                     !- Thickness
    0.045,                    !- Conductivity
    50,                       !- Density
    750,                      !- Specific Heat