!-Generator IDFEditor 1.51
!-Option SortedOrder

!-NOTE: All comments with '!-' are ignored by the IDFEditor and are generated automatically.
!-      Use '!' comments if they need to be retained when using the IDFEditor.

!- COMENTÁRIO: ESTE IDF NÃO ESTAVA COM A ILUMINAÇÃO CONFORME O PROJETO E ESTAVA COM O AR CONDICIONADO COMO AUTOSIZE


!-   ===========  ALL OBJECTS IN CLASS: VERSION ===========

Version,
    9.4;                     !- Version Identifier


!-   ===========  ALL OBJECTS IN CLASS: SIMULATIONCONTROL ===========

SimulationControl,
    Yes,                     !- Do Zone Sizing Calculation
    Yes,                      !- Do System Sizing Calculation
    Yes,                      !- Do Plant Sizing Calculation
    Yes,                     !- Run Simulation for Sizing Periods
    Yes;                     !- Run Simulation for Weather File Run Periods


!-   ===========  ALL OBJECTS IN CLASS: BUILDING ===========

Building,
    Faurb_ideal,                !- Name
    0.0,                     !- North Axis {deg}
    City,                    !- Terrain
    0.04,                    !- Loads Convergence Tolerance Value {W}
    0.4,                     !- Temperature Convergence Tolerance Value {deltaC}
    FullInteriorAndExterior, !- Solar Distribution
    25,                      !- Maximum Number of Warmup Days
    ;                        !- Minimum Number of Warmup Days


!-   ===========  ALL OBJECTS IN CLASS: ZONEAIRCONTAMINANTBALANCE ===========

ZoneAirContaminantBalance,
    Yes,                     !- Carbon Dioxide Concentration
    Outdoor CO2 Schedule;    !- Outdoor Carbon Dioxide Schedule Name


!-   ===========  ALL OBJECTS IN CLASS: TIMESTEP ===========

Timestep,
    6;                       !- Number of Timesteps per Hour


!-   ===========  ALL OBJECTS IN CLASS: SITE:LOCATION ===========

Site:Location,
    RS_Pelotas,              !- Name
    -31.52,                  !- Latitude {deg}
    -52.21,                  !- Longitude {deg}
    -3.0,                    !- Time Zone {hr}
    17;                      !- Elevation {m}


!-   ===========  ALL OBJECTS IN CLASS: SIZINGPERIOD:DESIGNDAY ===========

SizingPeriod:DesignDay,
    Pelotas_004,             !- Name
    6,                       !- Month
    19,                      !- Day of Month
    WinterDesignDay,         !- Day Type
    12.74,                   !- Maximum Dry-Bulb Temperature {C}
    7.96,                    !- Daily Dry-Bulb Temperature Range {deltaC}
    DefaultMultipliers,      !- Dry-Bulb Temperature Range Modifier Type
    ,                        !- Dry-Bulb Temperature Range Modifier Day Schedule Name
    DewPoint,                !- Humidity Condition Type
    7.92,                    !- Wetbulb or DewPoint at Maximum Dry-Bulb {C}
    ,                        !- Humidity Condition Day Schedule Name
    ,                        !- Humidity Ratio at Maximum Dry-Bulb {kgWater/kgDryAir}
    ,                        !- Enthalpy at Maximum Dry-Bulb {J/kg}
    ,                        !- Daily Wet-Bulb Temperature Range {deltaC}
    102993,                  !- Barometric Pressure {Pa}
    6.06,                    !- Wind Speed {m/s}
    0,                       !- Wind Direction {deg}
    No,                      !- Rain Indicator
    No,                      !- Snow Indicator
    No,                      !- Daylight Saving Time Indicator
    ASHRAEClearSky,          !- Solar Model Indicator
    ,                        !- Beam Solar Day Schedule Name
    ,                        !- Diffuse Solar Day Schedule Name
    ,                        !- ASHRAE Clear Sky Optical Depth for Beam Irradiance (taub) {dimensionless}
    ,                        !- ASHRAE Clear Sky Optical Depth for Diffuse Irradiance (taud) {dimensionless}
    0;                       !- Sky Clearness

SizingPeriod:DesignDay,
    Pelotas_996,             !- Name
    1,                       !- Month
    23,                      !- Day of Month
    SummerDesignDay,         !- Day Type
    36.1,                    !- Maximum Dry-Bulb Temperature {C}
    10.35,                   !- Daily Dry-Bulb Temperature Range {deltaC}
    DefaultMultipliers,      !- Dry-Bulb Temperature Range Modifier Type
    ,                        !- Dry-Bulb Temperature Range Modifier Day Schedule Name
    DewPoint,                !- Humidity Condition Type
    27.52,                   !- Wetbulb or DewPoint at Maximum Dry-Bulb {C}
    ,                        !- Humidity Condition Day Schedule Name
    ,                        !- Humidity Ratio at Maximum Dry-Bulb {kgWater/kgDryAir}
    ,                        !- Enthalpy at Maximum Dry-Bulb {J/kg}
    ,                        !- Daily Wet-Bulb Temperature Range {deltaC}
    100689,                  !- Barometric Pressure {Pa}
    3.11,                    !- Wind Speed {m/s}
    90,                      !- Wind Direction {deg}
    No,                      !- Rain Indicator
    No,                      !- Snow Indicator
    No,                      !- Daylight Saving Time Indicator
    ASHRAEClearSky,          !- Solar Model Indicator
    ,                        !- Beam Solar Day Schedule Name
    ,                        !- Diffuse Solar Day Schedule Name
    ,                        !- ASHRAE Clear Sky Optical Depth for Beam Irradiance (taub) {dimensionless}
    ,                        !- ASHRAE Clear Sky Optical Depth for Diffuse Irradiance (taud) {dimensionless}
    1;                       !- Sky Clearness


!-   ===========  ALL OBJECTS IN CLASS: RUNPERIOD ===========

RunPeriod,
    FAURB_50,              !- Name
    1,                       !- Begin Month
    1,                       !- Begin Day of Month
    2017,                        !- Begin Year
    12,                      !- End Month
    31,                      !- End Day of Month
    2017,                        !- End Year
    SUNDAY;                  !- Day of Week for Start Day


!-   ===========  ALL OBJECTS IN CLASS: RUNPERIODCONTROL:SPECIALDAYS ===========

RunPeriodControl:SpecialDays,
    New Years Day,           !- Name
    January 1,               !- Start Date
    1,                       !- Duration {days}
    Holiday;                 !- Special Day Type

RunPeriodControl:SpecialDays,
    Veterans Day,            !- Name
    November 11,             !- Start Date
    1,                       !- Duration {days}
    Holiday;                 !- Special Day Type

RunPeriodControl:SpecialDays,
    Christmas,               !- Name
    December 25,             !- Start Date
    1,                       !- Duration {days}
    Holiday;                 !- Special Day Type

RunPeriodControl:SpecialDays,
    Independence Day,        !- Name
    July 4,                  !- Start Date
    1,                       !- Duration {days}
    Holiday;                 !- Special Day Type

RunPeriodControl:SpecialDays,
    MLK Day,                 !- Name
    3rd Monday in January,   !- Start Date
    1,                       !- Duration {days}
    Holiday;                 !- Special Day Type

RunPeriodControl:SpecialDays,
    Presidents Day,          !- Name
    3rd Monday in February,  !- Start Date
    1,                       !- Duration {days}
    Holiday;                 !- Special Day Type

RunPeriodControl:SpecialDays,
    Memorial Day,            !- Name
    Last Monday in May,      !- Start Date
    1,                       !- Duration {days}
    Holiday;                 !- Special Day Type

RunPeriodControl:SpecialDays,
    Labor Day,               !- Name
    1st Monday in September, !- Start Date
    1,                       !- Duration {days}
    Holiday;                 !- Special Day Type

RunPeriodControl:SpecialDays,
    Columbus Day,            !- Name
    2nd Monday in October,   !- Start Date
    1,                       !- Duration {days}
    Holiday;                 !- Special Day Type

RunPeriodControl:SpecialDays,
    Thanksgiving,            !- Name
    4th Thursday in November,!- Start Date
    1,                       !- Duration {days}
    Holiday;                 !- Special Day Type


!-   ===========  ALL OBJECTS IN CLASS: SITE:GROUNDTEMPERATURE:UNDISTURBED:FINITEDIFFERENCE ===========

Site:GroundTemperature:Undisturbed:FiniteDifference,
    FiniteDiff,              !- Name
    1,                       !- Soil Thermal Conductivity {W/m-K}
    1250,                    !- Soil Density {kg/m3}
    1200,                    !- Soil Specific Heat {J/kg-K}
    30,                      !- Soil Moisture Content Volume Fraction {percent}
    50,                      !- Soil Moisture Content Volume Fraction at Saturation {percent}
    0.4;                     !- Evapotranspiration Ground Cover Parameter {dimensionless}


!-   ===========  ALL OBJECTS IN CLASS: SITE:GROUNDDOMAIN:SLAB ===========

Site:GroundDomain:Slab,
    GROUNDOMAIN,             !- Name
    10,                      !- Ground Domain Depth {m}
    1,                       !- Aspect Ratio
    5,                       !- Perimeter Offset {m}
    1.5,                     !- Soil Thermal Conductivity {W/m-K}
    2800,                    !- Soil Density {kg/m3}
    850,                     !- Soil Specific Heat {J/kg-K}
    30,                      !- Soil Moisture Content Volume Fraction {percent}
    50,                      !- Soil Moisture Content Volume Fraction at Saturation {percent}
    Site:GroundTemperature:Undisturbed:FiniteDifference,  !- Undisturbed Ground Temperature Model Type
    FiniteDiff,              !- Undisturbed Ground Temperature Model Name
    0.4,                     !- Evapotranspiration Ground Cover Parameter
    GroundCoupledOSCM,       !- Slab Boundary Condition Model Name
    OnGrade,                 !- Slab Location
    ,                        !- Slab Material Name
    No,                      !- Horizontal Insulation
    ,                        !- Horizontal Insulation Material Name
    Full,                    !- Horizontal Insulation Extents
    ,                        !- Perimeter Insulation Width {m}
    No,                      !- Vertical Insulation
    ,                        !- Vertical Insulation Material Name
    ,                        !- Vertical Insulation Depth {m}
    Hourly,                  !- Simulation Timestep
    1.6,                     !- Geometric Mesh Coefficient
    6;                       !- Mesh Density Parameter


!-   ===========  ALL OBJECTS IN CLASS: SCHEDULETYPELIMITS ===========

ScheduleTypeLimits,
    Any Number;              !- Name

ScheduleTypeLimits,
    Fraction,                !- Name
    0.0,                     !- Lower Limit Value
    1.0,                     !- Upper Limit Value
    CONTINUOUS;              !- Numeric Type

ScheduleTypeLimits,
    Temperature,             !- Name
    -60,                     !- Lower Limit Value
    200,                     !- Upper Limit Value
    CONTINUOUS;              !- Numeric Type

ScheduleTypeLimits,
    On/Off,                  !- Name
    0,                       !- Lower Limit Value
    1,                       !- Upper Limit Value
    DISCRETE;                !- Numeric Type

ScheduleTypeLimits,
    Control Type,            !- Name
    0,                       !- Lower Limit Value
    4,                       !- Upper Limit Value
    DISCRETE;                !- Numeric Type

ScheduleTypeLimits,
    Humidity,                !- Name
    10,                      !- Lower Limit Value
    90,                      !- Upper Limit Value
    CONTINUOUS;              !- Numeric Type

ScheduleTypeLimits,
    Number;                  !- Name


!-   ===========  ALL OBJECTS IN CLASS: SCHEDULE:COMPACT ===========

Schedule:Compact,
    OCUPACAO,       !- Name
    Fraction,                !- Schedule Type Limits Name
    Through: 12/31,          !- Field 1
    For: Weekdays,           !- Field 2
    Until: 08:00,            !- Field 3
    0.0,                     !- Field 4
    Until: 12:00,            !- Field 5
    0.7,                       !- Field 6
    Until: 13:30,            !- Field 7
    0,                       !- Field 8
    Until: 19:00,            !- Field 9
    0.7,                       !- Field 10
    Until: 24:00,            !- Field 11
    0,                       !- Field 12
    For: Weekend,            !- Field 13
    Until: 24:00,            !- Field 14
    0,                       !- Field 15
    For: Holidays AllOtherDays,  !- Field 16
    Until: 24:00,            !- Field 17
    0;                       !- Field 18

Schedule:Compact,
    METABOLISMO,!- Name
    Any Number,              !- Schedule Type Limits Name
    Through: 12/31,          !- Field 1
    For: AllDays,            !- Field 2
    Until: 24:00,            !- Field 3
    120.0;                    !- Field 4

Schedule:Compact,
    WORK_EF,  !- Name
    Fraction,                !- Schedule Type Limits Name
    Through: 12/31,          !- Field 1
    For: AllDays,            !- Field 2
    Until: 24:00,            !- Field 3
    0.0;                     !- Field 4

Schedule:Compact,
    VN_25,                   !- Name
    Temperature,             !- Schedule Type Limits Name
    Through: 12/31,          !- Field 1
    For: AllDays,            !- Field 2
    Until: 24:00,            !- Field 3
    25;                      !- Field 4

!-   ===========  ALL OBJECTS IN CLASS: SCHEDULE:CONSTANT ===========

Schedule:Constant,
    Outdoor CO2 Schedule,
    Any Number,
    400.0;

Schedule:Constant,
    CO2_LIMITE,
    Any Number,
    1000.0;

Schedule:Constant,
    Always Off,
    On/Off,
    0;

Schedule:Constant,
    Always On,
    On/Off,
    1;

!---- SALA_AULA ----

Schedule:Constant,
    JANELA_SALA_AULA,        
    On/Off,                  
    0;                      

Schedule:Constant,
    VENT_SALA_AULA,                !- Name
    Any Number,               !- Schedule Type Limits Name
    0.0;                      !- Hourly Value

Schedule:Constant,
    VEL_SALA_AULA,            !- Name
    Any Number,               !- Schedule Type Limits Name
    0.0;                      !- Hourly Value

Schedule:Constant,
    AC_SALA_AULA,
    Any Number,
    0;

Schedule:Constant,
    TEMP_COOL_AC_SALA_AULA,
    Temperature,
    32;

Schedule:Constant,
    TEMP_HEAT_AC_SALA_AULA,
    Temperature,
    14;

Schedule:Constant,
    PMV_SALA_AULA,
    Number,
    0;

Schedule:Constant,
    ADAPTATIVO_PYTHERMAL_SALA_AULA,
    Number,
    0;

Schedule:Constant,
    TEMP_OP_MAX_ADAP_SALA_AULA,
    Number,
    0;

Schedule:Constant,
    ADAP_MIN_SALA_AULA,
    Number,
    0;

Schedule:Constant,
    ADAP_MAX_SALA_AULA,
    Number,
    0;

Schedule:Constant,
    EM_CONFORTO_SALA_AULA,
    Number,
    0;

!---- RECEPCAO ----

Schedule:Constant,
    JANELA_RECEPCAO,        
    On/Off,                  
    0;    

Schedule:Constant,
    VENT_RECEPCAO,                !- Name
    Any Number,               !- Schedule Type Limits Name
    0.0;                      !- Hourly Value

Schedule:Constant,
    VEL_RECEPCAO,                !- Name
    Any Number,               !- Schedule Type Limits Name
    0.0;                      !- Hourly Value

Schedule:Constant,
    AC_RECEPCAO,
    Any Number,
    0;

Schedule:Constant,
    TEMP_COOL_AC_RECEPCAO,
    Temperature,
    32;

Schedule:Constant,
    TEMP_HEAT_AC_RECEPCAO,
    Temperature,
    14;

Schedule:Constant,
    PMV_RECEPCAO,
    Number,
    0;

Schedule:Constant,
    ADAPTATIVO_PYTHERMAL_RECEPCAO,
    Number,
    0;

Schedule:Constant,
    TEMP_OP_MAX_ADAP_RECEPCAO,
    Number,
    0;

Schedule:Constant,
    ADAP_MIN_RECEPCAO,
    Number,
    0;

Schedule:Constant,
    ADAP_MAX_RECEPCAO,
    Number,
    0;

Schedule:Constant,
    EM_CONFORTO_RECEPCAO,
    Number,
    0;

!---- ATELIE1 ----

Schedule:Constant,
    JANELA_ATELIE1,        
    On/Off,                  
    0;

Schedule:Constant,
    VENT_ATELIE1,                !- Name
    Any Number,               !- Schedule Type Limits Name
    0.0;                      !- Hourly Value

Schedule:Constant,
    VEL_ATELIE1,              !- Name
    Any Number,               !- Schedule Type Limits Name
    0.0;                      !- Hourly Value

Schedule:Constant,
    AC_ATELIE1,
    Any Number,
    0;

Schedule:Constant,
    TEMP_COOL_AC_ATELIE1,
    Temperature,
    32;

Schedule:Constant,
    TEMP_HEAT_AC_ATELIE1,
    Temperature,
    14;

Schedule:Constant,
    PMV_ATELIE1,
    Number,
    0;

Schedule:Constant,
    ADAPTATIVO_PYTHERMAL_ATELIE1,
    Number,
    0;

Schedule:Constant,
    TEMP_OP_MAX_ADAP_ATELIE1,
    Number,
    0;

Schedule:Constant,
    ADAP_MIN_ATELIE1,
    Number,
    0;

Schedule:Constant,
    ADAP_MAX_ATELIE1,
    Number,
    0;

Schedule:Constant,
    EM_CONFORTO_ATELIE1,
    Number,
    0;

!---- ATELIE2 ----

Schedule:Constant,
    JANELA_ATELIE2,        
    On/Off,                  
    0;                      

Schedule:Constant,
    VENT_ATELIE2,                !- Name
    Any Number,               !- Schedule Type Limits Name
    0.0;                      !- Hourly Value

Schedule:Constant,
    VEL_ATELIE2,              !- Name
    Any Number,               !- Schedule Type Limits Name
    0.0;                      !- Hourly Value

Schedule:Constant,
    AC_ATELIE2,
    Any Number,
    0;

Schedule:Constant,
    TEMP_COOL_AC_ATELIE2,
    Temperature,
    32;

Schedule:Constant,
    TEMP_HEAT_AC_ATELIE2,
    Temperature,
    14;

Schedule:Constant,
    PMV_ATELIE2,
    Number,
    0;

Schedule:Constant,
    ADAPTATIVO_PYTHERMAL_ATELIE2,
    Number,
    0;

Schedule:Constant,
    TEMP_OP_MAX_ADAP_ATELIE2,
    Number,
    0;

Schedule:Constant,
    ADAP_MIN_ATELIE2,
    Number,
    0;

Schedule:Constant,
    ADAP_MAX_ATELIE2,
    Number,
    0;

Schedule:Constant,
    EM_CONFORTO_ATELIE2,
    Number,
    0;

!---- ATELIE3 ----

Schedule:Constant,
    JANELA_ATELIE3,        
    On/Off,                  
    0;                      

Schedule:Constant,
    VENT_ATELIE3,                !- Name
    Any Number,               !- Schedule Type Limits Name
    0.0;                      !- Hourly Value

Schedule:Constant,
    VEL_ATELIE3,              !- Name
    Any Number,               !- Schedule Type Limits Name
    0.0;                      !- Hourly Value

Schedule:Constant,
    AC_ATELIE3,
    Any Number,
    0;

Schedule:Constant,
    TEMP_COOL_AC_ATELIE3,
    Temperature,
    32;

Schedule:Constant,
    TEMP_HEAT_AC_ATELIE3,
    Temperature,
    14;

Schedule:Constant,
    PMV_ATELIE3,
    Number,
    0;

Schedule:Constant,
    ADAPTATIVO_PYTHERMAL_ATELIE3,
    Number,
    0;

Schedule:Constant,
    TEMP_OP_MAX_ADAP_ATELIE3,
    Number,
    0;

Schedule:Constant,
    ADAP_MIN_ATELIE3,
    Number,
    0;

Schedule:Constant,
    ADAP_MAX_ATELIE3,
    Number,
    0;

Schedule:Constant,
    EM_CONFORTO_ATELIE3,
    Number,
    0;

!---- LINSE ----

Schedule:Constant,
    JANELA_LINSE,        
    On/Off,                  
    0;                      

Schedule:Constant,
    VENT_LINSE,                !- Name
    Any Number,               !- Schedule Type Limits Name
    0.0;                      !- Hourly Value

Schedule:Constant,
    VEL_LINSE,                !- Name
    Any Number,               !- Schedule Type Limits Name
    0.0;                      !- Hourly Value

Schedule:Constant,
    AC_LINSE,
    Any Number,
    0;

Schedule:Constant,
    TEMP_COOL_AC_LINSE,
    Temperature,
    32;

Schedule:Constant,
    TEMP_HEAT_AC_LINSE,
    Temperature,
    14;

Schedule:Constant,
    PMV_LINSE,
    Number,
    0;

Schedule:Constant,
    ADAPTATIVO_PYTHERMAL_LINSE,
    Number,
    0;

Schedule:Constant,
    TEMP_OP_MAX_ADAP_LINSE,
    Number,
    0;

Schedule:Constant,
    ADAP_MIN_LINSE,
    Number,
    0;

Schedule:Constant,
    ADAP_MAX_LINSE,
    Number,
    0;

Schedule:Constant,
    EM_CONFORTO_LINSE,
    Number,
    0;

!---- SEC_LINSE ----

Schedule:Constant,
    JANELA_SEC_LINSE,        
    On/Off,                  
    0;                      

Schedule:Constant,
    VENT_SEC_LINSE,                !- Name
    Any Number,               !- Schedule Type Limits Name
    0.0;                      !- Hourly Value

Schedule:Constant,
    VEL_SEC_LINSE,            !- Name
    Any Number,               !- Schedule Type Limits Name
    0.0;                      !- Hourly Value

Schedule:Constant,
    AC_SEC_LINSE,
    Any Number,
    0;

Schedule:Constant,
    TEMP_COOL_AC_SEC_LINSE,
    Temperature,
    32;

Schedule:Constant,
    TEMP_HEAT_AC_SEC_LINSE,
    Temperature,
    14;

Schedule:Constant,
    PMV_SEC_LINSE,
    Number,
    0;

Schedule:Constant,
    ADAPTATIVO_PYTHERMAL_SEC_LINSE,
    Number,
    0;

Schedule:Constant,
    TEMP_OP_MAX_ADAP_SEC_LINSE,
    Number,
    0;

Schedule:Constant,
    ADAP_MIN_SEC_LINSE,
    Number,
    0;

Schedule:Constant,
    ADAP_MAX_SEC_LINSE,
    Number,
    0;

Schedule:Constant,
    EM_CONFORTO_SEC_LINSE,
    Number,
    0;

!-   ===========  ALL OBJECTS IN CLASS: MATERIAL ===========

Material,
    LAJE_CONCRETO,           !- Name
    MediumRough,             !- Roughness
    0.1,                     !- Thickness {m}
    1.75,                    !- Conductivity {W/m-K}
    2400,                    !- Density {kg/m3}
    1000,                    !- Specific Heat {J/kg-K}
    0.9,                     !- Thermal Absorptance
    0.7,                     !- Solar Absorptance
    0.7;                     !- Visible Absorptance

Material,
    MADEIRA,                 !- Name
    MediumRough,             !- Roughness
    0.03,                    !- Thickness {m}
    0.15,                    !- Conductivity {W/m-K}
    500,                     !- Density {kg/m3}
    2300,                    !- Specific Heat {J/kg-K}
    0.9,                     !- Thermal Absorptance
    0.7,                     !- Solar Absorptance
    0.7;                     !- Visible Absorptance

Material,
    PISO_PORCELANATO,        !- Name
    MediumRough,             !- Roughness
    0.015,                   !- Thickness {m}
    1.05,                    !- Conductivity {W/m-K}
    2000,                    !- Density {kg/m3}
    920,                     !- Specific Heat {J/kg-K}
    0.9,                     !- Thermal Absorptance
    0.7,                     !- Solar Absorptance
    0.7;                     !- Visible Absorptance

Material,
    TIJOLO,                  !- Name
    MediumRough,             !- Roughness
    0.1,                     !- Thickness {m}
    0.9,                     !- Conductivity {W/m-K}
    1400,                    !- Density {kg/m3}
    920,                     !- Specific Heat {J/kg-K}
    0.9,                     !- Thermal Absorptance
    0.7,                     !- Solar Absorptance
    0.7;                     !- Visible Absorptance

Material,
    TELHA_ALUMINIO,          !- Name
    MediumRough,             !- Roughness
    0.001,                   !- Thickness {m}
    230,                     !- Conductivity {W/m-K}
    2700,                    !- Density {kg/m3}
    880,                     !- Specific Heat {J/kg-K}
    0.9,                     !- Thermal Absorptance
    0.7,                     !- Solar Absorptance
    0.7;                     !- Visible Absorptance

Material,
    LA_DE_ROCHA_50mm,        !- Name
    MediumSmooth,            !- Roughness
    0.05,                    !- Thickness {m}
    0.045,                   !- Conductivity {W/m-K}
    200,                     !- Density {kg/m3}
    750,                     !- Specific Heat {J/kg-K}
    0.9,                     !- Thermal Absorptance
    0.7,                     !- Solar Absorptance
    0.7;                     !- Visible Absorptance

Material,
    REBOCO,                  !- Name
    MediumSmooth,            !- Roughness
    0.025,                   !- Thickness {m}
    1.15,                    !- Conductivity {W/m-K}
    2000,                    !- Density {kg/m3}
    1000,                    !- Specific Heat {J/kg-K}
    0.9,                     !- Thermal Absorptance
    0.5,                     !- Solar Absorptance
    0.7;                     !- Visible Absorptance

Material,
    TELHA_ALUMIN,            !- Name
    MediumSmooth,            !- Roughness
    0.001,                   !- Thickness {m}
    112,                     !- Conductivity {W/m-K}
    7100,                    !- Density {kg/m3}
    380,                     !- Specific Heat {J/kg-K}
    0.9,                     !- Thermal Absorptance
    0.8,                     !- Solar Absorptance
    0.7;                     !- Visible Absorptance

Material,
    EPS,                     !- Name
    MediumRough,             !- Roughness
    0.03,                    !- Thickness {m}
    0.04,                    !- Conductivity {W/m-K}
    35,                      !- Density {kg/m3}
    1420,                    !- Specific Heat {J/kg-K}
    0.9,                     !- Thermal Absorptance
    0.7,                     !- Solar Absorptance
    0.7;                     !- Visible Absorptance

Material,
    GESSO_ACARTONADO,        !- Name
    MediumRough,             !- Roughness
    0.0125,                  !- Thickness {m}
    0.35,                    !- Conductivity {W/m-K}
    1000,                    !- Density {kg/m3}
    840,                     !- Specific Heat {J/kg-K}
    0.9,                     !- Thermal Absorptance
    0.3,                     !- Solar Absorptance
    0.7;                     !- Visible Absorptance

Material,
    CONTRAPISO,              !- Name
    MediumRough,             !- Roughness
    0.035,                   !- Thickness {m}
    1.75,                    !- Conductivity {W/m-K}
    2400,                    !- Density {kg/m3}
    1000,                    !- Specific Heat {J/kg-K}
    0.9,                     !- Thermal Absorptance
    0.7,                     !- Solar Absorptance
    0.7;                     !- Visible Absorptance

Material,
    PISO_VIN,                !- Name
    MediumRough,             !- Roughness
    0.01,                    !- Thickness {m}
    0.4,                     !- Conductivity {W/m-K}
    900,                     !- Density {kg/m3}
    100,                     !- Specific Heat {J/kg-K}
    0.9,                     !- Thermal Absorptance
    0.7,                     !- Solar Absorptance
    0.7;                     !- Visible Absorptance

Material,
    Tijolo_equivalente 14,   !- Name
    MediumRough,             !- Roughness
    0.0184,                  !- Thickness {m}
    0.9,                     !- Conductivity {W/m-K}
    1807,                    !- Density {kg/m3}
    920,                     !- Specific Heat {J/kg-K}
    0.9,                     !- Thermal Absorptance
    0.7,                     !- Solar Absorptance
    0.7;                     !- Visible Absorptance

Material,
    Tijolo_equivalente 25,   !- Name
    MediumRough,             !- Roughness
    0.2068,                  !- Thickness {m}
    0.9,                     !- Conductivity {W/m-K}
    348,                     !- Density {kg/m3}
    920,                     !- Specific Heat {J/kg-K}
    0.9,                     !- Thermal Absorptance
    0.7,                     !- Solar Absorptance
    0.7;                     !- Visible Absorptance

Material,
    Piso Concreto industrial,!- Name
    MediumRough,             !- Roughness
    0.015,                   !- Thickness {m}
    1.75,                    !- Conductivity {W/m-K}
    2400,                    !- Density {kg/m3}
    1000,                    !- Specific Heat {J/kg-K}
    0.9,                     !- Thermal Absorptance
    0.7,                     !- Solar Absorptance
    0.7;                     !- Visible Absorptance

Material,
    LA_DE_ROCHA_75mm,        !- Name
    MediumRough,             !- Roughness
    0.075,                   !- Thickness {m}
    0.045,                   !- Conductivity {W/m-K}
    200,                     !- Density {kg/m3}
    750,                     !- Specific Heat {J/kg-K}
    0.9,                     !- Thermal Absorptance
    0.7,                     !- Solar Absorptance
    0.7;                     !- Visible Absorptance

Material,
    LA_DE_ROCHA_30mm,        !- Name
    MediumSmooth,            !- Roughness
    0.03,                    !- Thickness {m}
    0.045,                   !- Conductivity {W/m-K}
    200,                     !- Density {kg/m3}
    750,                     !- Specific Heat {J/kg-K}
    0.9,                     !- Thermal Absorptance
    0.7,                     !- Solar Absorptance
    0.7;                     !- Visible Absorptance


!-   ===========  ALL OBJECTS IN CLASS: MATERIAL:AIRGAP ===========

Material:AirGap,
    CAMARA_AR_COB,           !- Name
    0.14;                    !- Thermal Resistance {m2-K/W}


!-   ===========  ALL OBJECTS IN CLASS: WINDOWMATERIAL:GLAZING ===========

WindowMaterial:Glazing,
    vidro6mm,                !- Name
    SpectralAverage,         !- Optical Data Type
    ,                        !- Window Glass Spectral Data Set Name